328

 Li                 4.43737000    1.49393000   15.00000000
 Li                 2.19122000    3.09590000   15.00000000
 Li                 1.92695000    0.34970300   15.00000000
 Li                -1.78156000    3.69660000   22.07959900
 Li                 0.55846500    1.69060000   22.16690100
 Li                 0.88953400    4.99239000   21.94790100
 Li                 1.14633000    1.54781000   17.68639900
 Li                 3.79007000    0.21885700   17.68639900
 Li                 3.61910000    3.17287000   17.68639900
 Li                 1.76954000    3.58239000   19.20240000
 Li                -0.64642300    4.46590000   19.45949900
 Li                -0.62360100    1.94920000   19.32449900
 Li                 0.00000000    0.00000000   16.47270000
 Li                17.18090100    0.21123300   20.51009900
 Cr                 2.72836000    1.81516000   20.65099900
 Cr                 0.00000000    3.29302000   16.21940000
 N                  4.43044000    1.66020000   21.07729900
 N                  2.67065000    1.63242000   18.93310000
 N                 -1.65864000    3.39274000   15.68820000
 N                  0.74296700    1.80673000   15.68820000
 N                  0.91568000    4.67959000   15.68820000
 N                  1.79244000    0.37467200   21.41340100
 N                  2.03564000    3.35527000   21.10969900
 N                  0.00000000    3.29302000   17.96209900
 O                 11.20420000    9.73162000   18.39800100
 Li                 4.24643000    1.51829000   23.52870000
 Li                 2.12943000    3.18059000   23.42120000
 Li                 1.93402000    0.36404300   23.50410100
 Li                 8.53285000    2.69578000   31.51300000
 Li                 1.75511000    3.60726000   27.68219900
 Li                 1.22230000    1.26657000   25.96730000
 Li                 3.63555000    2.97822000   26.33989900
 Li                -0.06471200    9.62411000   24.87200000
 Li                 5.54306000    5.02521000   27.44170000
 Li                 9.67891000    4.96454000   31.18960000
 Li                 3.67131000    3.59653000   30.64530000
 Li                15.06090000    3.07102000   26.30250000
 Li                15.16890000    0.23933800   26.22260100
 Li                 4.46076000    0.05498900   30.36260000
 Cr                 2.67757000    1.78487000   29.21250000
 Cr                 0.04667100    3.32719000   24.77360000
 N                  4.31173000    1.88474000   29.81349900
 N                  2.85544000    1.44795000   27.51400000
 N                 -1.71034000    3.68385000   24.17950100
 N                  0.70590900    1.81558000   24.29010000
 N                  0.97778900    4.82390000   24.26330000
 N                  1.60869000    0.49657400   29.91280000
 N                  2.11072000    3.48964000   29.61370100
 N                  0.01634300    3.47218000   26.54670000
 O                  0.05156200    0.08668000   26.71390000
 Li                 1.58552000    6.43347000   15.00000000
 Li                -0.66061700    8.03543000   15.00000000
 Li                -0.92489200    5.28924000   15.00000000
 Li                -4.35234000    8.36525000   22.14469900
 Li                -2.32269000    7.03527000   21.99990100
 Li                -1.85240000    9.75286000   21.96850000
 Li                -1.70551000    6.48734000   17.68639900
 Li                 0.93822700    5.15839000   17.68639900
 Li                 0.76726500    8.11240000   17.68639900
 Li                -1.49475000    8.40474000   19.31699900
 Li                -3.89754000    9.38096000   19.23080100
 Li                -3.79953000    6.54405000   19.14600000
 Li                14.25920000    4.93953000   16.47270000
 Li                -2.91081000    5.00509000   20.53560100
 Cr                -0.09265800    6.66012000   20.61280100
 Cr                -2.85184000    8.23255000   16.21940000
 N                  1.65494000    6.69624000   21.02800000
 N                 -0.17850300    6.73204000   18.87599900
 N                 -4.51048000    8.33227000   15.68820000
 N                 -2.10888000    6.74627000   15.68820000
 N                 -1.93615000    9.61912000   15.68820000
 N                 -0.95836900    5.50687000   21.45350100
 N                 -0.74036500    8.19412000   21.37109900
 N                 -2.85184000    8.23255000   17.96209900
 O                 14.14290000    4.98742000   18.30180000
 Li                 1.86697000    6.33487000   23.61990000
 Li                -0.68963000    8.10994000   23.34730000
 Li                -1.82712000    6.48376000   26.13940000
 Li                 1.30888000    5.02860000   30.66370000
 Li                12.52100000    5.09963000   26.35490000
 Li                13.16410000    4.62349000   29.64279900
 Li                -1.10367000    5.27502000   23.57630000
 Li                 0.79756300    5.16918000   26.07510000
 Li                 8.54109000    5.29840000   29.36260000
 Li                -4.20675000    9.77066000   27.84470000
 Li                 3.60891000    0.29198600   26.17670100
 Li                -3.55356000    7.03136000   27.85090100
 Li                 2.99084000    5.00291000   29.00880100
 Li                10.86330000    1.42165000   27.39889900
 Cr                -0.05627500    6.64483000   29.02689900
 Cr                -2.83285000    8.20498000   24.77940000
 N                  1.57266000    6.56838000   29.42440000
 N                 -0.18158600    6.72444000   27.30540100
 N                 -4.43238000    8.28432000   24.09250100
 N                 -2.15069000    6.77414000   24.11850000
 N                 -1.94978000    9.59116000   24.13830000
 N                 -0.60963000    5.27391000   30.10860100
 N                 -0.83965500    7.99668000   29.59050000
 N                 -2.91722000    8.30634000   26.48410000
 O                 -2.67786000    4.83371000   26.91440000
 Li                10.14100000    1.49393000   15.00000000
 Li                 7.89490000    3.09590000   15.00000000
 Li                 7.63063000    0.34970300   15.00000000
 Li                 3.98457000    3.42696000   21.31830000
 Li                 6.24719000    1.53820000   22.12820100
 Li                 5.91469000    4.32957000   21.71270000
 Li                 6.85002000    1.54781000   17.68639900
 Li                 9.49374000    0.21885700   17.68639900
 Li                 9.32280000    3.17287000   17.68639900
 Li                 7.36346000    3.38713000   19.13290000
 Li                 4.74954000    5.01002000   19.04010000
 Li                 5.13836000    1.71974000   19.23679900
 Li                 5.70367000    0.00000000   16.47270000
 Li                 5.89580000   -0.04214300   20.39550000
 Cr                 8.48339000    1.67939000   20.69310000
 Cr                 5.70367000    3.29302000   16.21940000
 N                 10.08610000    1.57967000   21.42460100
 N                  8.53551000    1.69758000   18.95970000
 N                  4.04504000    3.39274000   15.68820000
 N                  6.44664000    1.80673000   15.68820000
 N                  6.61935000    4.67959000   15.68820000
 N                  7.52201000    0.38262200   21.21970000
 N                  7.61577000    3.10029000   21.11190000
 N                  5.70367000    3.29302000   17.96209900
 O                  5.85989000    0.09340700   18.52210000
 Li                10.29300000    1.45203000   23.49860000
 Li                 7.70008000    3.44953000   23.19230100
 Li                 7.58179000    0.34302000   23.42060100
 Li                10.39130000    8.47471000   27.53249900
 Li                 0.45506200    7.90429000   25.93260000
 Li                11.33160000    3.09437000   29.17540000
 Li                10.54360000    7.92672000   31.69210100
 Li                 0.87486800    8.50979000   30.72930000
 Li                 8.37508000    1.94848000   24.85790100
 Li                 6.72356000    1.35298000   26.71550000
 Li                -2.05337000    6.94823000   30.99140000
 Li                 8.06278000    5.11525000   24.90630000
 Li                 1.06764000    9.37371000   27.86640000
 Li                 3.38479000    9.73624000   30.30750100
 Cr                 8.54955000    1.78031000   28.97550000
 Cr                 5.59435000    3.09457000   24.76140000
 N                 10.11880000    1.24720000   29.50869900
 N                  8.63150000    1.58188000   27.31360100
 N                  3.84943000    3.24918000   24.31310100
 N                  6.29445000    1.55187000   24.01790000
 N                  6.31180000    4.45159000   24.10870000
 N                  7.39345000    0.37529500   29.77330000
 N                  8.18448000    3.32220000   29.37229900
 N                  5.79761000    3.20405000   26.48100100
 O                 -0.07784000    9.70236000   26.77310000
 Li                 7.28920000    6.43347000   15.00000000
 Li                 5.04306000    8.03543000   15.00000000
 Li                 4.77878000    5.28924000   15.00000000
 Li                 1.49282000    8.64197000   22.07659900
 Li                 3.42849000    6.97930000   21.68320100
 Li                 3.64230000    9.67915000   21.98329900
 Li                 3.99818000    6.48734000   17.68639900
 Li                 6.64190000    5.15839000   17.68639900
 Li                 6.47096000    8.11240000   17.68639900
 Li                 4.82782000    8.68952000   19.24060100
 Li                 1.93298000    9.54703000   19.15480000
 Li                 1.81025000    6.88040000   18.92740100
 Li                 2.85183000    4.93953000   16.47270000
 Li                 2.73512000    5.09155000   20.48590100
 Cr                 5.67904000    6.77275000   20.71390000
 Cr                 2.85183000    8.23255000   16.21940000
 N                  7.22939000    6.47074000   21.18050000
 N                  5.53386000    6.83538000   18.87520000
 N                  1.19320000    8.33227000   15.68820000
 N                  3.59480000    6.74627000   15.68820000
 N                  3.76752000    9.61912000   15.68820000
 N                  4.54564000    5.43452000   21.17470000
 N                  5.00185000    8.35286000   21.36430000
 N                  2.85183000    8.23255000   17.96209900
 O                  2.78888000    5.15125000   18.64370000
 Li                 7.07218000    6.08498000   23.29110000
 Li                 5.02912000    8.09552000   23.52150000
 Li                 4.37591000    5.09404000   23.55130000
 Li                -2.74753000    4.93837000   24.97750100
 Li                -0.49267600    1.46875000   27.87150000
 Li                 0.56383300    2.75844000   30.24099900
 Li                 1.96296000    6.64625000   27.61290000
 Li                 6.35192000    8.30210000   26.31010100
 Li                 5.48811000    9.63250000   25.00050000
 Li                 7.73036000    4.03229000   27.54970000
 Li                 5.91056000    7.19335000   32.34880100
 Li                10.69310000    4.71030000   27.50390100
 Li                 2.72306000    4.95805000   24.96229900
 Li                 5.85386000    3.12157000   29.69140100
 Cr                 5.48710000    6.54457000   29.20620000
 Cr                 2.83025000    8.20719000   24.74920100
 N                  4.70799000    7.69976000   30.92890000
 N                  5.73953000    6.85064000   27.59630000
 N                  1.24310000    8.33405000   24.08779900
 N                  3.64866000    6.75729000   24.14340000
 N                  3.77226000    9.61832000   24.08449900
 N                  5.17309000    4.96120000   29.86240000
 N                  4.19339000    7.89454000   29.73049900
 N                  2.86958000    8.06733000   26.47559900
 O                  2.98769000    4.99670000   26.89839900
 Li                15.84470000    1.49393000   15.00000000
 Li                13.59860000    3.09590000   15.00000000
 Li                13.33430000    0.34970300   15.00000000
 Li                 9.89898000    3.50527000   22.13850000
 Li                12.03310000    1.88500000   21.87770100
 Li                12.17000000    4.41843000   21.57500100
 Li                12.55370000    1.54781000   17.68639900
 Li                15.19740000    0.21885700   17.68639900
 Li                15.02650000    3.17287000   17.68639900
 Li                12.84310000    3.27338000   19.15340000
 Li                10.11910000    4.70614000   19.07160000
 Li                10.45710000    2.02018000   19.42499900
 Li                11.40740000    0.00000000   16.47270000
 Li                11.26150000    0.10718400   21.03070100
 Cr                14.26330000    1.65284000   20.67140000
 Cr                11.40740000    3.29302000   16.21940000
 N                 15.89060000    1.72794000   21.11170000
 N                 14.27870000    1.69693000   18.89349900
 N                  9.74871000    3.39274000   15.68820000
 N                 12.15030000    1.80673000   15.68820000
 N                 12.32300000    4.67959000   15.68820000
 N                 13.31030000    0.30621100   21.29670000
 N                 13.42270000    3.18135000   21.20319900
 N                 11.40740000    3.29302000   17.96209900
 O                 11.38100000    0.09366400   18.42970100
 Li                15.93300000    1.74685000   23.66350000
 Li                13.36610000    3.28603000   23.39430000
 Li                13.35690000    0.55504600   23.69249900
 Li                 5.14073000    4.21850000   33.63230100
 Li                 4.70269000    1.43466000   27.90900000
 Li                 4.06989000    6.59535000   26.20509900
 Li                13.21550000    3.25705000   27.50309900
 Li                -1.35759000    4.18665000   28.15230000
 Li                11.78630000    1.14436000   30.54870000
 Li                 8.74196000    8.19264000   29.74110000
 Li                 1.95665000    0.38187700   31.91480100
 Li                 7.09982000    9.12317000   28.16690100
 Li                 9.41120000    0.07991900   26.22890100
 Li                 4.44642000    8.82196000   27.96789900
 Cr                14.28920000    1.52295000   29.32640100
 Cr                11.34190000    3.33191000   25.02319900
 N                 15.86080000    2.12787000   30.02249900
 N                 14.43890000    1.55226000   27.63710000
 N                  9.65035000    3.45524000   24.47270000
 N                 12.08610000    1.99771000   24.22130000
 N                 12.14960000    4.69324000   24.43090100
 N                  7.91128000    9.81801000   29.92830100
 N                 13.27770000    2.71996000   29.90810000
 N                 11.48850000    3.21829000   26.82309900
 O                  5.55642000    9.78263000   26.77490000
 Li                12.99290000    6.43347000   15.00000000
 Li                10.74670000    8.03543000   15.00000000
 Li                10.48250000    5.28924000   15.00000000
 Li                 6.97846000    8.41715000   21.98280000
 Li                 9.05955000    6.77934000   22.00630000
 Li                 9.60850000    9.58439000   22.08630000
 Li                 9.70186000    6.48734000   17.68639900
 Li                12.34560000    5.15839000   17.68639900
 Li                12.17460000    8.11240000   17.68639900
 Li                10.27270000    8.32981000   19.20750000
 Li                 7.57601000    9.86129000   19.03669900
 Li                 7.58791000    6.56608000   19.04859900
 Li                 8.55553000    4.93953000   16.47270000
 Li                 8.67459000    4.75259000   20.64360000
 Cr                11.30050000    6.62209000   20.66810000
 Cr                 8.55553000    8.23255000   16.21940000
 N                 12.90450000    6.57724000   21.35510100
 N                 11.34830000    6.57347000   18.88590000
 N                  6.89687000    8.33227000   15.68820000
 N                  9.29847000    6.74627000   15.68820000
 N                  9.47120000    9.61912000   15.68820000
 N                 10.38290000    5.19180000   21.32259900
 N                 10.63040000    8.00292000   21.41910000
 N                  8.55553000    8.23255000   17.96209900
 O                  8.34052000    4.85725000   18.33610000
 Li                12.85280000    6.41065000   23.31320000
 Li                10.68820000    7.91655000   23.60360000
 Li                10.09510000    5.15483000   23.49210000
 Li                 8.04065000    6.60126000   26.92170000
 Li                12.92360000    1.13289000   26.45410000
 Li                -1.21334000    8.64750000   27.65449900
 Li                12.15600000    8.04928000   25.98290100
 Li                -3.11347000    8.58601000   30.26009900
 Li                11.27520000    9.69777000   24.93400000
 Li                -0.28140000    0.21124700   30.27960000
 Li                 9.72729000    6.37477000   25.95630100
 Li                 6.75658000    4.80316000   31.14830000
 Li                 9.21885000    3.27240000   26.42170000
 Li                 4.06065000    5.97520000   31.92050000
 Cr                11.57560000    6.48380000   29.14469900
 Cr                 8.47580000    8.26677000   24.70500000
 N                 -3.80339000    6.45116000   29.82110000
 N                 11.50940000    6.62031000   27.49090000
 N                  6.82075000    8.46448000   24.16540000
 N                  9.25697000    6.78299000   24.07500100
 N                  9.51411000    9.71846000   24.18219900
 N                 10.82770000    5.04343000   29.54509900
 N                 10.74950000    7.92030000   29.86890000
 N                  8.52293000    8.19748000   26.50989900
 O                  8.84253000    5.09110000   26.76569900
 N                  6.48012000    3.20701000   32.29620000
 H                  6.96064877    7.59813090   29.11990719
 H                  6.15406000    2.22694000   31.80170100
 H                  7.08418000    2.83849000   33.20500200
 N                  11.93817000    4.37027000   31.20480000
 H                  11.76229000    4.92228000   32.10279800
 H                  6.62831000    0.70483900   30.33230000
 H                  7.29067007    7.63526839   29.89146843
 N                 11.46110000    9.44239000   32.60780000
 H                 13.13570000    6.40187000   30.81110000
 H                 -1.65026000    2.98081000   30.49290100
 H                 16.64180000    0.21808300   33.20579900
 N                  9.69369000    3.85572000   32.67699800
 H                 11.80960000    8.90232000   33.37189900
 H                  9.15336000    4.04475000   33.50740100
 H                 10.60600000    3.43179000   32.70140100
 N                 -2.23485000    9.04896000   32.19269900
 H                 -1.27244000    9.53861000   32.25149900
 H                 -2.12281000    8.36771000   33.05810200
 H                  8.65184000    9.47205000   30.75190000
 N                  3.06375000    4.52287000   32.31370200
 H                  2.21125000    4.70064000   32.81790200
 H                  3.00859000    3.45742000   32.36470000
 H                 -1.57937000    4.95472000   30.26020100
 N                  5.13455000    6.25937000   33.85900100
 H                  3.17158000    7.38972000   29.58120000
 H                  4.72147000    7.14531000   34.08879900
 H                  5.71097000    5.83452000   34.61360200
